LAMMPS (23 Jun 2022 - Update 4)
# created by fftool

# System settings
units real
boundary p p p  # Periodic boundary conditions

# definition of atoms, bonds, angles
atom_style full
bond_style harmonic
angle_style harmonic

# definition of pair potentials
special_bonds lj/coul 0.0 0.0 0.5
pair_style lj/cut/coul/long 10.0 10.0
pair_modify mix geometric tail yes
kspace_style pppm 1.0e-5

# read data file
read_data data.lmp
Reading data file ...
  orthogonal box = (0 0 0) to (9.865483 9.865483 9.865483)
  reading atoms ...
  96 atoms
  scanning bonds ...
  scanning angles ...
  reading bonds ...
  64 bonds
  reading angles ...
  32 angles
Finding 1-2 1-3 1-4 neighbors ...
     2 = max # of 1-2 neighbors
     1 = max # of 1-3 neighbors
     1 = max # of 1-4 neighbors
     2 = max # of special neighbors

# definition of LJ parameters
pair_coeff    1    1     0.000000     0.000000  # Hw Hw
pair_coeff    2    2     0.163049     3.182090  # Ow-Ow

############################################

# remove energy hotspots
minimize 1.0e-4 1.0e-6 100 1000
PPPM initialization ...
  G vector (1/distance) = 0.30847861
  grid = 9 9 9
  stencil order = 5
  estimated absolute RMS force accuracy = 0.0027675926
  estimated relative force accuracy = 8.334523e-06
  3d grid and FFT values/proc = 4096 729
Generated 1 of 1 mixed pair_coeff terms from geometric mixing rule
  update every 1 steps, delay 0 steps, check yes
Step          Temp          E_pair         E_mol          TotEng         Press
0   0              638136.64      7.9980495e-09  638136.64      1.8238983e+08
Loop time of 0.109115 on 1 procs for 100 steps with 96 atoms

Minimization stats:
  Stopping criterion = max iterations
  Energy initial, next-to-last, final =
  Force two-norm initial, final = 10616948 11.855124
  Force max component initial, final = 6779089.5 2.9831936
  Final line search alpha, max atom move = 0.0086091074 0.025682634
  Iterations, force evaluations = 100 179

reset_timestep 0

# constrain water bonds and angles
fix fSHAKE all shake 0.0001 20 0 b 1 a 1
       0 = # of size 2 clusters
       0 = # of size 3 clusters
       0 = # of size 4 clusters
      32 = # of frozen angles
  find clusters CPU = 0.000 seconds

# remove Center of Mass movement every 100 steps
fix fMOM all momentum 100 linear 1 1 1

# define the neighbor list
neighbor 2.0 bin

# IMPORTANT: timestep and temperature and pressure
timestep 1.0
variable vTK equal 298.15
variable vPBAR equal 1.0

# randomize velocities
velocity all create 298.15 28810

# thermostat (solving the ODE)
fix fTHERMO all nvt temp 298.15 298.15 100

# print settings
thermo 1000
thermo_style custom step etotal ke pe temp press vol density
# trajectory output
dump dEQUI all custom 1000 equi.lammpstrj id element xu yu zu
dump_modify dEQUI element H O sort id

# equilibration
# 1 ns
run 1000000
PPPM initialization ...
  G vector (1/distance) = 0.30847861
  grid = 9 9 9
  stencil order = 5
  estimated absolute RMS force accuracy = 0.0027675926
  estimated relative force accuracy = 8.334523e-06
  3d grid and FFT values/proc = 4096 729
Generated 1 of 1 mixed pair_coeff terms from geometric mixing rule
Step         TotEng         KinEng         PotEng          Temp          Press          Volume        Density
0  -423.30944      55.989897     -479.29934      298.15        -931.68508      960.18531      0.99696118
Averages over the last 501 of 1001 rows, steps 500000 to 1000000:
TotEng KinEng PotEng Temp Press Volume Density
-314.224 56.1 -370.324 298.736 -17.0144 960.185 0.996961
Loop time of 432.68 on 1 procs for 1000000 steps with 96 atoms

# write data file
write_data data.after_eq.lmp
System init for write_data ...
PPPM initialization ...
  G vector (1/distance) = 0.30847861
  grid = 9 9 9
  stencil order = 5
  estimated absolute RMS force accuracy = 0.0027675926
  estimated relative force accuracy = 8.334523e-06
  3d grid and FFT values/proc = 4096 729
Generated 1 of 1 mixed pair_coeff terms from geometric mixing rule

# clean up
undump dEQUI

# production
# 2 ns
dump dPROD all custom 1000 prod.lammpstrj id element xu yu zu
dump_modify dPROD element H O sort id
run 2000000
PPPM initialization ...
  G vector (1/distance) = 0.30847861
  grid = 9 9 9
  stencil order = 5
  estimated absolute RMS force accuracy = 0.0027675926
  estimated relative force accuracy = 8.334523e-06
  3d grid and FFT values/proc = 4096 729
Generated 1 of 1 mixed pair_coeff terms from geometric mixing rule
Step         TotEng         KinEng         PotEng          Temp          Press          Volume        Density
1000000  -326.45016      51.907358     -378.35752      276.41021     -1083.3966      960.18531      0.99696118
Averages over the last 1001 of 2001 rows, steps 2000000 to 3000000:
TotEng KinEng PotEng Temp Press Volume Density
-314.54 55.8088 -370.349 297.186 -150.061 960.185 0.996961
Loop time of 865.356 on 1 procs for 2000000 steps with 96 atoms

# write data file
write_data data.after_prod.lmp
System init for write_data ...
PPPM initialization ...
  G vector (1/distance) = 0.30847861
  grid = 9 9 9
  stencil order = 5
  estimated absolute RMS force accuracy = 0.0027675926
  estimated relative force accuracy = 8.334523e-06
  3d grid and FFT values/proc = 4096 729
Generated 1 of 1 mixed pair_coeff terms from geometric mixing rule

# clean up
undump dPROD
unfix fTHERMO
unfix fMOM
unfix fSHAKE
