LAMMPS (23 Jun 2022 - Update 4)
# created by fftool

# System settings
units real
boundary p p p  # Periodic boundary conditions

# definition of atoms, bonds, angles
atom_style full
bond_style harmonic
angle_style harmonic

# definition of pair potentials
special_bonds lj/coul 0.0 0.0 0.5
pair_style lj/cut/coul/long 10.0 10.0
pair_modify mix geometric tail yes
kspace_style pppm 1.0e-5

# read data file
read_data data.lmp
Reading data file ...
  orthogonal box = (0 0 0) to (12.42973 12.42973 12.42973)
  reading atoms ...
  192 atoms
  scanning bonds ...
  scanning angles ...
  reading bonds ...
  128 bonds
  reading angles ...
  64 angles
Finding 1-2 1-3 1-4 neighbors ...
     2 = max # of 1-2 neighbors
     1 = max # of 1-3 neighbors
     1 = max # of 1-4 neighbors
     2 = max # of special neighbors

# definition of LJ parameters
pair_coeff    1    1     0.000000     0.000000  # Hw Hw
pair_coeff    2    2     0.163315     3.168823  # Ow-Ow

############################################

# remove energy hotspots
minimize 1.0e-4 1.0e-6 100 1000
PPPM initialization ...
  G vector (1/distance) = 0.31260513
  grid = 12 12 12
  stencil order = 5
  estimated absolute RMS force accuracy = 0.0021455329
  estimated relative force accuracy = 6.4612085e-06
  3d grid and FFT values/proc = 6859 1728
Generated 1 of 1 mixed pair_coeff terms from geometric mixing rule
  update every 1 steps, delay 0 steps, check yes
Step          Temp          E_pair         E_mol          TotEng         Press
0   0              176438.79      2.4014708e-07  176438.79      25273842
Loop time of 0.212876 on 1 procs for 100 steps with 192 atoms

Minimization stats:
  Stopping criterion = max iterations
  Energy initial, next-to-last, final =
  Force two-norm initial, final = 1322222.6 18.551346
  Force max component initial, final = 729542.32 3.2141011
  Final line search alpha, max atom move = 0.0029961451 0.0096299132
  Iterations, force evaluations = 100 179

reset_timestep 0

# constrain water bonds and angles
fix fSHAKE all shake 0.0001 20 0 b 1 a 1
       0 = # of size 2 clusters
       0 = # of size 3 clusters
       0 = # of size 4 clusters
      64 = # of frozen angles
  find clusters CPU = 0.000 seconds

# remove Center of Mass movement every 100 steps
fix fMOM all momentum 100 linear 1 1 1

# define the neighbor list
neighbor 2.0 bin

# IMPORTANT: timestep and temperature and pressure
timestep 1.0
variable vTK equal 298.15
variable vPBAR equal 1.0

# randomize velocities
velocity all create 298.15 45338

# thermostat (solving the ODE)
fix fTHERMO all nvt temp 298.15 298.15 100

# print settings
thermo 1000
thermo_style custom step etotal ke pe temp press vol density
# trajectory output
dump dEQUI all custom 1000 equi.lammpstrj id element xu yu zu
dump_modify dEQUI element H O sort id

# equilibration
# 1 ns
run 1000000
PPPM initialization ...
  G vector (1/distance) = 0.31260513
  grid = 12 12 12
  stencil order = 5
  estimated absolute RMS force accuracy = 0.0021455329
  estimated relative force accuracy = 6.4612085e-06
  3d grid and FFT values/proc = 6859 1728
Generated 1 of 1 mixed pair_coeff terms from geometric mixing rule
Step         TotEng         KinEng         PotEng          Temp          Press          Volume        Density
0  -837.44462      112.86852     -950.31314      298.15         6753.3606      1920.3708      0.9969611
Averages over the last 501 of 1001 rows, steps 500000 to 1000000:
TotEng KinEng PotEng Temp Press Volume Density
-646.915 113.067 -759.981 298.673 -235.454 1920.37 0.996961
Loop time of 898.49 on 1 procs for 1000000 steps with 192 atoms

# write data file
write_data data.after_eq.lmp
System init for write_data ...
PPPM initialization ...
  G vector (1/distance) = 0.31260513
  grid = 12 12 12
  stencil order = 5
  estimated absolute RMS force accuracy = 0.0021455329
  estimated relative force accuracy = 6.4612085e-06
  3d grid and FFT values/proc = 6859 1728
Generated 1 of 1 mixed pair_coeff terms from geometric mixing rule

# clean up
undump dEQUI

# production
# 2 ns
dump dPROD all custom 1000 prod.lammpstrj id element xu yu zu
dump_modify dPROD element H O sort id
run 2000000
PPPM initialization ...
  G vector (1/distance) = 0.31260513
  grid = 12 12 12
  stencil order = 5
  estimated absolute RMS force accuracy = 0.0021455329
  estimated relative force accuracy = 6.4612085e-06
  3d grid and FFT values/proc = 6859 1728
Generated 1 of 1 mixed pair_coeff terms from geometric mixing rule
Step         TotEng         KinEng         PotEng          Temp          Press          Volume        Density
1000000  -639.25439      96.764229     -736.01862      255.6094       618.04538      1920.3708      0.9969611
Averages over the last 1001 of 2001 rows, steps 2000000 to 3000000:
TotEng KinEng PotEng Temp Press Volume Density
-647.4 113.039 -760.439 298.6 -152.516 1920.37 0.996961
Loop time of 1782.07 on 1 procs for 2000000 steps with 192 atoms

# write data file
write_data data.after_prod.lmp
System init for write_data ...
PPPM initialization ...
  G vector (1/distance) = 0.31260513
  grid = 12 12 12
  stencil order = 5
  estimated absolute RMS force accuracy = 0.0021455329
  estimated relative force accuracy = 6.4612085e-06
  3d grid and FFT values/proc = 6859 1728
Generated 1 of 1 mixed pair_coeff terms from geometric mixing rule

# clean up
undump dPROD
unfix fTHERMO
unfix fMOM
unfix fSHAKE
